12
0 1
C 1.9734904890 1.9032240290 0.4323011810
H 2.4798841180 2.8646731120 0.3974308240
H 1.5629463660 1.7570881540 1.4301778210
H 1.1438426870 1.8937107550 -0.2692043520
C 2.8891208720 0.7482852100 0.1163849690
O 2.4649260790 -0.3716255830 -0.1686965690
N 4.2152577870 1.0100094880 0.1755843330
H 4.5132702360 1.9204376210 0.4732715220
C 5.1976638210 -0.0301018190 -0.0471594880
H 4.8411066330 -0.6810391410 -0.8393364470
H 6.1380330590 0.4234220170 -0.3456731880
H 5.3571739340 -0.6346287210 0.8449160480
