12
0 1
C 2.2568915470 2.6900998980 -0.1493272990
H 2.3815100170 3.1012766290 -1.1483716310
H 2.7634629230 3.3310924500 0.5684572210
H 1.1904797910 2.6635703710 0.0690941300
C 2.7688832380 1.2723022170 -0.1470332670
O 2.3089033530 0.4065657980 -0.8862078800
N 3.7553662070 0.9992698710 0.7452974410
H 4.1551272280 1.7542026460 1.2706501950
C 4.3438115460 -0.3203206740 0.8227970080
H 3.5556349340 -1.0616508210 0.7297764120
H 5.0650713280 -0.4923160460 0.0242526160
H 4.8384650590 -0.4361888630 1.7827365360
