12
0 1
N 4.1438294630 -1.0857038190 0.0004992760
H 4.5910732460 -0.1791306190 0.0008860920
C 4.9998772330 -2.2003216090 -0.0010006010
O 6.2093292560 -2.0486171940 -0.0017498000
C 4.2856588030 -3.4624951470 -0.0015049950
H 4.8522433520 -4.3775258970 -0.0026436300
C 2.9354898270 -3.4663130190 -0.0005448990
H 2.3585265900 -4.3792777850 -0.0008635760
N 2.1974984170 -2.3154321800 0.0009055130
H 1.1711621570 -2.3368749790 0.0015825820
C 2.7702693550 -1.0707671390 0.0014561600
O 2.1199484710 -0.0295488340 0.0026925530
