8
0 1
C 2.7893484470 1.1084192420 0.2711837580
O 2.0857300820 0.1351047540 0.0313961560
O 2.3169221130 2.3108546300 0.5589622290
H 1.3231335730 2.2779563960 0.5445617250
C 4.2860608950 1.0625164960 0.2692193630
H 4.6236404590 0.0611973030 0.0316938680
H 4.6675594400 1.7728694350 -0.4602495350
H 4.6575772060 1.3652110130 1.2452747240
