12
0 1
C 1.9877604550 1.1097572000 3.7103195810
H 2.6326055790 1.9759409430 3.7740702990
C 2.5337135810 -0.1713938990 3.7718393140
H 3.6019204650 -0.2995409490 3.8845835330
C 1.7020641010 -1.2869939990 3.6931888850
H 2.1251458080 -2.2813464340 3.7428425480
C 0.3256625400 -1.1213589700 3.5484721370
H -0.3194400560 -1.9867692140 3.4808395050
C -0.2198973310 0.1588737770 3.4845063090
H -1.2865253650 0.2867029900 3.3613275480
C 0.6113796190 1.2741545390 3.5665772530
H 0.1878547370 2.2680595730 3.5142083230
