11
0 1
N -0.5337232690 -1.5158616270 3.8441437100
C -1.4662013620 -0.5552321720 3.9179948680
H -2.4689906090 -0.8861869710 4.1601877340
C -1.2041983240 0.7958362520 3.7086154870
H -2.0027560810 1.5203416870 3.7868865800
C 0.0952290090 1.1850775350 3.3983470780
H 0.3372135670 2.2240760170 3.2224758230
C 1.0747883170 0.2021793800 3.3149856140
H 2.0970895560 0.4489251250 3.0665486340
C 0.7123085970 -1.1229583780 3.5481786080
H 1.4561693620 -1.9085130120 3.4917300110
