11
0 1
N -2.3984319870 0.1621408760 3.5204113660
C -1.7835460560 1.3198086860 3.8004755560
H -2.4311501130 2.1729801390 3.9629876490
C -0.4013311580 1.4606564220 3.8906463720
H 0.0305176000 2.4243065370 4.1218626690
C 0.3996202330 0.3436771180 3.6764324610
H 1.4771894010 0.4140613960 3.7312669710
C -0.2209316700 -0.8649779200 3.3827728840
H 0.3548428400 -1.7605998030 3.1986979470
C -1.6114459470 -0.9030158030 3.3173234660
H -2.1202988720 -1.8314691810 3.0884807920
