12
0 1
N -0.2748806400 0.6715874220 3.2186456820
H -0.6481880330 1.5733488520 2.9557527110
C 1.1172660420 0.5986005160 3.3506590210
O 1.8081763610 1.5930242080 3.2058249560
C 1.5961661560 -0.7354771930 3.6687692230
H 2.6532182500 -0.8876931320 3.8028903590
C 0.7164569290 -1.7498583690 3.7949857480
H 1.0223844500 -2.7582789780 4.0315101090
N -0.6287889580 -1.5648264490 3.6248936050
H -1.2775367890 -2.3273853920 3.7237627760
C -1.2032372670 -0.3400254210 3.3254789890
O -2.4010256790 -0.1892021460 3.1833667970
