17
0 1
C 2.5335573030 0.2950213310 4.5130998570
H 2.5681417900 0.8948280290 3.6037743090
H 2.5640606140 0.9782279080 5.3618446780
H 3.4342379940 -0.3164759750 4.5433087970
C 1.2717311010 -0.5568659400 4.5524041090
H 1.2662873910 -1.1665936530 5.4589010690
H 1.2706005890 -1.2562196840 3.7128230470
C -0.0000438890 0.2792331600 4.5067876690
H -0.0001988160 0.9815431380 5.3457721430
H 0.0000330070 0.8880095790 3.5977180340
C -1.2718047280 -0.5569088190 4.5520592070
H -1.2664224880 -1.1670182680 5.4583093100
H -1.2706983880 -1.2559317110 3.7121955540
C -2.5335239580 0.2951374900 4.5130815010
H -2.5677172600 0.8956711580 3.6042047430
H -3.4343259340 -0.3161608650 4.5425946830
H -2.5640634920 0.9777237300 5.3623428910
