17
0 1
C 1.1414124670 2.3570315230 4.0570781710
H 0.7105638530 2.6680802180 3.1042956040
H 0.5071785560 2.7624646440 4.8453258220
H 2.1242924930 2.8174789350 4.1501996570
C 1.2144289310 0.8381605730 4.1465965120
H 1.6448125750 0.5485977170 5.1078874670
H 1.8890185230 0.4470000220 3.3814783470
C -0.1503562590 0.1799939210 3.9917797530
H -0.8216005190 0.5488697310 4.7733989940
H -0.5978271280 0.4902589380 3.0418795270
C -0.0940673210 -1.3406926300 4.0514152490
H 0.3295381750 -1.6431230450 5.0120514360
H 0.5974544220 -1.7025715690 3.2869128210
C -1.4633502430 -1.9825658400 3.8676415980
H -1.9017292380 -1.7091081570 2.9074560890
H -1.4064114500 -3.0693342270 3.9116987860
H -2.1513130210 -1.6542198570 4.6468746450
