15
0 1
C 1.0567231410 -0.8635103130 4.3987436650
H 1.5105756500 -0.9555665520 3.4107611110
H 1.6012256410 -1.5274905800 5.0679413370
C 1.1110366120 0.6024416890 4.8316796470
H 2.0693266030 1.0753406230 4.6209553580
H 0.9229213260 0.6840792310 5.9049027790
C -0.0563149710 1.2152561660 4.0609084460
H 0.2179893050 1.3040377690 3.0074368240
H -0.3407293950 2.2063972910 4.4125424600
C -1.1732594630 0.1776842570 4.2319367600
H -1.8987987420 0.2012981110 3.4205648480
H -1.7173450930 0.3823814130 5.1541853760
C -0.4502231180 -1.1888635740 4.3355936470
H -0.6928876640 -1.8330196990 3.4922339730
H -0.7653293450 -1.7162659880 5.2346800670
