17
0 1
C -0.6237021970 -0.0297179630 4.7318891550
C -1.9404483820 0.7115708370 4.9467620590
H -2.6475197850 0.0933646530 5.5016244000
H -1.7809488220 1.6317553850 5.5109470760
H -2.3981581570 0.9730678570 3.9916084040
C -0.0082655820 -0.3831558850 6.0831665970
H 0.9348965910 -0.9155291950 5.9523847660
H 0.1887553700 0.5165858550 6.6679687400
H -0.6795596030 -1.0208928920 6.6599033450
C 0.3414220750 0.8637598590 3.9561000620
H 1.2899925560 0.3511651520 3.7857460660
H 0.5467122740 1.7818963080 4.5095264350
H -0.0809733130 1.1422464680 2.9886356230
C -0.8850193910 -1.3097523560 3.9415242610
H -1.3487577920 -1.0879186520 2.9788996230
H 0.0475569090 -1.8481512760 3.7618875810
H -1.5555271990 -1.9715663190 4.4917091830
