17
0 1
C 2.6606655160 0.4627453930 4.8533464500
H 2.7775048000 1.2171612880 4.0746016260
H 2.5745551450 0.9876317160 5.8050025070
H 3.5727569580 -0.1314965150 4.8801544590
C 1.4323932910 -0.4006421180 4.5957949000
H 1.3378239380 -1.1460961200 5.3888457350
H 1.5488134210 -0.9541064460 3.6619510970
C 0.1498554450 0.4179718300 4.5304935490
H 0.0382851260 0.9957067130 5.4535771930
H 0.2290895930 1.1507867380 3.7208408960
C -1.0945008440 -0.4323634040 4.3136136510
H -1.1853028090 -1.1468498910 5.1350308760
H -0.9666938380 -1.0213011340 3.4033991980
C -2.3613393390 0.4079281020 4.2234989250
H -2.2944261030 1.1149790840 3.3957296920
H -3.2466815560 -0.2080893890 4.0696660180
H -2.5116953820 0.9841391920 5.1367185190
