11
0 1
N 0.4501150730 0.0013010390 6.7809597230
C 1.3207830900 -0.0043117520 5.7615466900
H 2.3686396640 -0.0030632270 6.0358494820
C 0.9473973540 -0.0113795130 4.4197186180
H 1.6948580170 -0.0155435320 3.6386189700
C -0.4086512030 -0.0127935770 4.1073031520
H -0.7383798820 -0.0182490540 3.0770217040
C -1.3267544670 -0.0070784910 5.1524727660
H -2.3912045030 -0.0079278810 4.9637369800
C -0.8511506630 -0.0001608360 6.4614316160
H -1.5433343260 0.0044222930 7.2946228210
