9
0 1
C 0.0819293720 0.4975307230 4.8047286140
O 0.3284187210 1.5409569670 4.2174893310
N -0.2221178770 -0.6574758140 4.1535612690
H -0.1969175650 -0.6644911440 3.1469246620
H -0.3778943620 -1.5129681310 4.6492629800
C 0.1047740720 0.4026388930 6.3131460860
H 1.1364878730 0.4868511760 6.6482198800
H -0.3171298390 -0.5240041030 6.6941717580
H -0.4446905940 1.2464852030 6.7199165960
